<?xml version="1.0" encoding="UTF-8"?>

<!-- generated on 2022-08-01 05:05:05 by Eclipse SUMO netedit Version 1.12.0
-->

<routes xmlns:xsi="http://www.w3.org/2001/XMLSchema-instance" xsi:noNamespaceSchemaLocation="http://sumo.dlr.de/xsd/routes_file.xsd">
    <vType id="DEFAULT_VEHTYPE" maxSpeed="13.89"/>
    <vType id="t_0"/>
    <trip id="t_0" depart="0.00" departPos="100.00" from="E0" to="E0"/>
    <trip id="t_1" depart="0.00" departPos="110.00" from="E0" to="E0"/>
    <trip id="t_2" depart="0.00" departPos="120.00" from="E0" to="E0"/>
    <trip id="t_3" depart="0.00" departPos="130.00" from="E0" to="E0"/>
</routes>
