<?xml version="1.0" encoding="UTF-8"?>

<!-- generated on 2022-07-14 10:17:09 by Eclipse SUMO netedit Version 1.12.0
<configuration xmlns:xsi="http://www.w3.org/2001/XMLSchema-instance" xsi:noNamespaceSchemaLocation="http://sumo.dlr.de/xsd/netconvertConfiguration.xsd">

    <output>
        <output-file value="C:\Users\ADMIN\Desktop\VExample%20work\road.net.xml"/>
    </output>

    <processing>
        <offset.disable-normalization value="true"/>
    </processing>

    <junctions>
        <no-turnarounds value="true"/>
    </junctions>

    <report>
        <aggregate-warnings value="5"/>
    </report>

</configuration>
-->

<net version="1.9" junctionCornerDetail="5" limitTurnSpeed="5.50" xmlns:xsi="http://www.w3.org/2001/XMLSchema-instance" xsi:noNamespaceSchemaLocation="http://sumo.dlr.de/xsd/net_file.xsd">

    <location netOffset="0.00,0.00" convBoundary="100.00,200.00,1100.00,200.00" origBoundary="10000000000.00,10000000000.00,-10000000000.00,-10000000000.00" projParameter="!"/>

    <edge id="-E0" from="J2" to="J1" priority="-1">
        <lane id="-E0_0" index="0" speed="13.89" length="1000.00" shape="1100.00,201.60 100.00,201.60"/>
    </edge>
    <edge id="E0" from="J1" to="J2" priority="-1">
        <lane id="E0_0" index="0" speed="13.89" length="1000.00" shape="100.00,198.40 1100.00,198.40"/>
    </edge>

    <junction id="J1" type="dead_end" x="100.00" y="200.00" incLanes="-E0_0" intLanes="" shape="100.00,200.00 100.00,203.20 100.00,200.00"/>
    <junction id="J2" type="dead_end" x="1100.00" y="200.00" incLanes="E0_0" intLanes="" shape="1100.00,200.00 1100.00,196.80 1100.00,200.00"/>

</net>
