<?xml version="1.0" encoding="UTF-8"?>

<!-- generated on 04/01/20 11:50:58 by Eclipse SUMO netedit Version 1.2.0
<configuration xmlns:xsi="http://www.w3.org/2001/XMLSchema-instance" xsi:noNamespaceSchemaLocation="http://sumo.dlr.de/xsd/netconvertConfiguration.xsd">

    <input>
        <sumo-net-file value="C:\Users\Shekar\Desktop\VANET_RSU\Network.net.xml"/>
    </input>

    <output>
        <output-file value="C:\Users\Shekar\Desktop\VANET_RSU\Network.net.xml"/>
    </output>

    <processing>
        <geometry.max-grade.fix value="false"/>
        <offset.disable-normalization value="true"/>
        <lefthand value="false"/>
    </processing>

    <junctions>
        <no-turnarounds value="true"/>
        <junctions.corner-detail value="5"/>
        <junctions.limit-turn-speed value="5.5"/>
        <rectangular-lane-cut value="false"/>
    </junctions>

    <pedestrian>
        <walkingareas value="false"/>
    </pedestrian>

</configuration>
-->

<net version="1.1" junctionCornerDetail="5" limitTurnSpeed="5.50" xmlns:xsi="http://www.w3.org/2001/XMLSchema-instance" xsi:noNamespaceSchemaLocation="http://sumo.dlr.de/xsd/net_file.xsd">

    <location netOffset="0.00,0.00" convBoundary="100.00,100.00,500.00,400.00" origBoundary="-10000000000.00,-10000000000.00,10000000000.00,10000000000.00" projParameter="!"/>

    <edge id=":gneJ0_0" function="internal">
        <lane id=":gneJ0_0_0" index="0" speed="9.73" length="21.49" shape="98.40,111.73 99.23,105.90 101.73,101.73 105.90,99.23 111.73,98.40"/>
    </edge>
    <edge id=":gneJ0_1" function="internal">
        <lane id=":gneJ0_1_0" index="0" speed="7.42" length="11.43" shape="98.40,111.73 99.09,105.59 101.16,102.79 102.91,103.06"/>
    </edge>
    <edge id=":gneJ0_6" function="internal">
        <lane id=":gneJ0_6_0" index="0" speed="7.42" length="7.88" shape="102.91,103.06 104.60,103.31 109.42,107.16"/>
    </edge>
    <edge id=":gneJ0_2" function="internal">
        <lane id=":gneJ0_2_0" index="0" speed="5.47" length="9.74" shape="107.16,109.42 104.73,107.48 102.99,107.22 101.95,108.63 101.60,111.73"/>
    </edge>
    <edge id=":gneJ0_3" function="internal">
        <lane id=":gneJ0_3_0" index="0" speed="7.42" length="19.31" shape="107.16,109.42 103.31,104.60 102.79,101.16 105.59,99.09 111.73,98.40"/>
    </edge>
    <edge id=":gneJ0_4" function="internal">
        <lane id=":gneJ0_4_0" index="0" speed="5.47" length="9.74" shape="111.73,101.60 108.63,101.95 107.22,102.99 107.48,104.73 109.42,107.16"/>
    </edge>
    <edge id=":gneJ0_5" function="internal">
        <lane id=":gneJ0_5_0" index="0" speed="8.54" length="16.33" shape="111.73,101.60 107.30,102.23 104.13,104.13 102.23,107.30 101.60,111.73"/>
    </edge>
    <edge id=":gneJ1_0" function="internal">
        <lane id=":gneJ1_0_0" index="0" speed="10.36" length="24.51" shape="117.56,401.60 109.17,400.93 103.19,398.91 99.60,395.54 98.40,390.82"/>
    </edge>
    <edge id=":gneJ1_1" function="internal">
        <lane id=":gneJ1_1_0" index="0" speed="6.26" length="4.69" shape="117.56,401.60 113.75,400.29 113.40,399.72"/>
    </edge>
    <edge id=":gneJ1_6" function="internal">
        <lane id=":gneJ1_6_0" index="0" speed="6.26" length="10.60" shape="113.40,399.72 111.86,397.20 112.17,393.59 114.99,390.72"/>
    </edge>
    <edge id=":gneJ1_2" function="internal">
        <lane id=":gneJ1_2_0" index="0" speed="5.60" length="11.85" shape="116.42,393.58 112.87,395.69 111.88,397.20 113.44,398.10 117.56,398.40"/>
    </edge>
    <edge id=":gneJ1_3" function="internal">
        <lane id=":gneJ1_3_0" index="0" speed="8.68" length="22.89" shape="116.42,393.58 109.78,396.44 104.01,397.58 99.94,396.03 98.40,390.82"/>
    </edge>
    <edge id=":gneJ1_4" function="internal">
        <lane id=":gneJ1_4_0" index="0" speed="7.33" length="15.88" shape="101.60,390.82 102.44,393.29 104.95,394.09 109.13,393.23 114.99,390.72"/>
    </edge>
    <edge id=":gneJ1_5" function="internal">
        <lane id=":gneJ1_5_0" index="0" speed="9.28" length="19.46" shape="101.60,390.82 102.60,394.14 105.59,396.51 110.57,397.93 117.56,398.40"/>
    </edge>
    <edge id=":gneJ2_0" function="internal">
        <lane id=":gneJ2_0_0" index="0" speed="5.47" length="9.74" shape="498.40,111.73 498.05,108.63 497.01,107.22 495.27,107.48 492.84,109.42"/>
    </edge>
    <edge id=":gneJ2_1" function="internal">
        <lane id=":gneJ2_1_0" index="0" speed="8.54" length="16.33" shape="498.40,111.73 497.77,107.30 495.87,104.13 492.70,102.23 488.27,101.60"/>
    </edge>
    <edge id=":gneJ2_2" function="internal">
        <lane id=":gneJ2_2_0" index="0" speed="9.73" length="21.49" shape="488.27,98.40 494.10,99.23 498.27,101.73 500.77,105.90 501.60,111.73"/>
    </edge>
    <edge id=":gneJ2_3" function="internal">
        <lane id=":gneJ2_3_0" index="0" speed="7.42" length="11.43" shape="488.27,98.40 494.41,99.09 497.21,101.16 496.94,102.91"/>
    </edge>
    <edge id=":gneJ2_6" function="internal">
        <lane id=":gneJ2_6_0" index="0" speed="7.42" length="7.88" shape="496.94,102.91 496.69,104.60 492.84,109.42"/>
    </edge>
    <edge id=":gneJ2_4" function="internal">
        <lane id=":gneJ2_4_0" index="0" speed="5.47" length="9.74" shape="490.58,107.16 492.52,104.73 492.78,102.99 491.37,101.95 488.27,101.60"/>
    </edge>
    <edge id=":gneJ2_5" function="internal">
        <lane id=":gneJ2_5_0" index="0" speed="7.42" length="19.31" shape="490.58,107.16 495.40,103.31 498.84,102.79 500.91,105.59 501.60,111.73"/>
    </edge>
    <edge id=":gneJ3_0" function="internal">
        <lane id=":gneJ3_0_0" index="0" speed="10.36" length="24.51" shape="501.60,390.82 500.40,395.54 496.81,398.91 490.83,400.93 482.44,401.60"/>
    </edge>
    <edge id=":gneJ3_1" function="internal">
        <lane id=":gneJ3_1_0" index="0" speed="8.68" length="10.07" shape="501.60,390.82 500.06,396.03 495.99,397.58 495.71,397.52"/>
    </edge>
    <edge id=":gneJ3_6" function="internal">
        <lane id=":gneJ3_6_0" index="0" speed="8.68" length="12.82" shape="495.71,397.52 490.22,396.44 483.58,393.58"/>
    </edge>
    <edge id=":gneJ3_2" function="internal">
        <lane id=":gneJ3_2_0" index="0" speed="7.33" length="15.88" shape="485.01,390.72 490.87,393.23 495.05,394.09 497.56,393.29 498.40,390.82"/>
    </edge>
    <edge id=":gneJ3_3" function="internal">
        <lane id=":gneJ3_3_0" index="0" speed="6.26" length="15.29" shape="485.01,390.72 487.83,393.59 488.14,397.20 486.25,400.29 482.44,401.60"/>
    </edge>
    <edge id=":gneJ3_4" function="internal">
        <lane id=":gneJ3_4_0" index="0" speed="5.60" length="11.85" shape="482.44,398.40 486.56,398.10 488.12,397.20 487.13,395.69 483.58,393.58"/>
    </edge>
    <edge id=":gneJ3_5" function="internal">
        <lane id=":gneJ3_5_0" index="0" speed="9.28" length="19.46" shape="482.44,398.40 489.43,397.93 494.41,396.51 497.40,394.14 498.40,390.82"/>
    </edge>
    <edge id=":gneJ4_0" function="internal">
        <lane id=":gneJ4_0_0" index="0" speed="6.51" length="9.03" shape="298.40,107.20 298.05,104.75 297.00,103.00 295.25,101.95 292.80,101.60"/>
    </edge>
    <edge id=":gneJ4_1" function="internal">
        <lane id=":gneJ4_1_0" index="0" speed="8.00" length="14.19" shape="298.40,107.20 298.95,103.35 300.60,100.60 303.35,98.95 307.20,98.40"/>
    </edge>
    <edge id=":gneJ4_2" function="internal">
        <lane id=":gneJ4_2_0" index="0" speed="6.51" length="9.03" shape="307.20,101.60 304.75,101.95 303.00,103.00 301.95,104.75 301.60,107.20"/>
    </edge>
    <edge id=":gneJ4_3" function="internal">
        <lane id=":gneJ4_3_0" index="0" speed="13.89" length="14.40" shape="307.20,101.60 292.80,101.60"/>
    </edge>
    <edge id=":gneJ4_4" function="internal">
        <lane id=":gneJ4_4_0" index="0" speed="13.89" length="14.40" shape="292.80,98.40 307.20,98.40"/>
    </edge>
    <edge id=":gneJ4_5" function="internal">
        <lane id=":gneJ4_5_0" index="0" speed="8.00" length="5.93" shape="292.80,98.40 296.65,98.95 298.40,100.00"/>
    </edge>
    <edge id=":gneJ4_6" function="internal">
        <lane id=":gneJ4_6_0" index="0" speed="8.00" length="8.26" shape="298.40,100.00 299.40,100.60 301.05,103.35 301.60,107.20"/>
    </edge>
    <edge id=":gneJ5_0" function="internal">
        <lane id=":gneJ5_0_0" index="0" speed="13.89" length="14.40" shape="307.20,401.60 292.80,401.60"/>
    </edge>
    <edge id=":gneJ5_1" function="internal">
        <lane id=":gneJ5_1_0" index="0" speed="8.00" length="5.93" shape="307.20,401.60 303.35,401.05 301.60,400.00"/>
    </edge>
    <edge id=":gneJ5_6" function="internal">
        <lane id=":gneJ5_6_0" index="0" speed="8.00" length="8.26" shape="301.60,400.00 300.60,399.40 298.95,396.65 298.40,392.80"/>
    </edge>
    <edge id=":gneJ5_2" function="internal">
        <lane id=":gneJ5_2_0" index="0" speed="6.51" length="9.03" shape="301.60,392.80 301.95,395.25 303.00,397.00 304.75,398.05 307.20,398.40"/>
    </edge>
    <edge id=":gneJ5_3" function="internal">
        <lane id=":gneJ5_3_0" index="0" speed="8.00" length="14.19" shape="301.60,392.80 301.05,396.65 299.40,399.40 296.65,401.05 292.80,401.60"/>
    </edge>
    <edge id=":gneJ5_4" function="internal">
        <lane id=":gneJ5_4_0" index="0" speed="6.51" length="9.03" shape="292.80,398.40 295.25,398.05 297.00,397.00 298.05,395.25 298.40,392.80"/>
    </edge>
    <edge id=":gneJ5_5" function="internal">
        <lane id=":gneJ5_5_0" index="0" speed="13.89" length="14.40" shape="292.80,398.40 307.20,398.40"/>
    </edge>
    <edge id=":gneJ6_0" function="internal">
        <lane id=":gneJ6_0_0" index="0" speed="5.74" length="9.18" shape="298.40,309.18 298.03,306.48 296.93,304.97 295.09,304.66 292.51,305.54"/>
    </edge>
    <edge id=":gneJ6_1" function="internal">
        <lane id=":gneJ6_1_0" index="0" speed="13.89" length="15.16" shape="298.40,309.18 298.40,294.02"/>
    </edge>
    <edge id=":gneJ6_2" function="internal">
        <lane id=":gneJ6_2_0" index="0" speed="7.44" length="6.46" shape="298.40,309.18 299.06,304.36 300.00,303.07"/>
    </edge>
    <edge id=":gneJ6_12" function="internal">
        <lane id=":gneJ6_12_0" index="0" speed="7.44" length="9.94" shape="300.00,303.07 301.03,301.67 304.32,301.11 308.92,302.67"/>
    </edge>
    <edge id=":gneJ6_3" function="internal">
        <lane id=":gneJ6_3_0" index="0" speed="5.74" length="9.18" shape="307.49,305.54 304.91,304.66 303.07,304.97 301.97,306.48 301.60,309.18"/>
    </edge>
    <edge id=":gneJ6_4" function="internal">
        <lane id=":gneJ6_4_0" index="0" speed="11.53" length="15.55" shape="307.49,305.54 303.75,304.13 300.00,303.66 296.25,304.13 292.51,305.54"/>
    </edge>
    <edge id=":gneJ6_5" function="internal">
        <lane id=":gneJ6_5_0" index="0" speed="10.24" length="5.68" shape="307.49,305.54 303.51,303.11 302.78,302.40"/>
    </edge>
    <edge id=":gneJ6_13" function="internal">
        <lane id=":gneJ6_13_0" index="0" speed="10.24" length="9.77" shape="302.78,302.40 300.67,300.38 298.97,297.35 298.40,294.02"/>
    </edge>
    <edge id=":gneJ6_6" function="internal">
        <lane id=":gneJ6_6_0" index="0" speed="9.05" length="11.91" shape="301.60,294.02 302.06,296.43 303.43,298.68 305.72,300.76 308.92,302.67"/>
    </edge>
    <edge id=":gneJ6_7" function="internal">
        <lane id=":gneJ6_7_0" index="0" speed="13.89" length="15.16" shape="301.60,294.02 301.60,309.18"/>
    </edge>
    <edge id=":gneJ6_8" function="internal">
        <lane id=":gneJ6_8_0" index="0" speed="10.24" length="5.48" shape="301.60,294.02 301.03,297.35 300.00,299.19"/>
    </edge>
    <edge id=":gneJ6_14" function="internal">
        <lane id=":gneJ6_14_0" index="0" speed="10.24" length="9.97" shape="300.00,299.19 299.33,300.38 296.49,303.11 292.51,305.54"/>
    </edge>
    <edge id=":gneJ6_9" function="internal">
        <lane id=":gneJ6_9_0" index="0" speed="9.05" length="11.91" shape="291.08,302.67 294.28,300.76 296.57,298.68 297.94,296.43 298.40,294.02"/>
    </edge>
    <edge id=":gneJ6_10" function="internal">
        <lane id=":gneJ6_10_0" index="0" speed="12.55" length="18.52" shape="291.08,302.67 295.54,301.00 300.00,300.44 304.46,301.00 308.92,302.67"/>
    </edge>
    <edge id=":gneJ6_11" function="internal">
        <lane id=":gneJ6_11_0" index="0" speed="7.44" length="8.78" shape="291.08,302.67 295.68,301.11 298.97,301.67 299.31,302.14"/>
    </edge>
    <edge id=":gneJ6_15" function="internal">
        <lane id=":gneJ6_15_0" index="0" speed="7.44" length="7.62" shape="299.31,302.14 300.94,304.36 301.60,309.18"/>
    </edge>
    <edge id=":gneJ7_0" function="internal">
        <lane id=":gneJ7_0_0" index="0" speed="6.63" length="3.77" shape="201.33,201.60 200.37,201.51 199.48,201.25 198.67,200.81 197.93,200.19"/>
    </edge>
    <edge id=":gneJ7_1" function="internal">
        <lane id=":gneJ7_1_0" index="0" speed="4.20" length="1.26" shape="200.19,197.93 200.44,198.14 200.71,198.28 201.01,198.37 201.33,198.40"/>
    </edge>
    <edge id=":gneJ8_0" function="internal">
        <lane id=":gneJ8_0_0" index="0" speed="6.51" length="9.03" shape="298.40,207.20 298.05,204.75 297.00,203.00 295.25,201.95 292.80,201.60"/>
    </edge>
    <edge id=":gneJ8_1" function="internal">
        <lane id=":gneJ8_1_0" index="0" speed="13.89" length="14.40" shape="298.40,207.20 298.40,192.80"/>
    </edge>
    <edge id=":gneJ8_2" function="internal">
        <lane id=":gneJ8_2_0" index="0" speed="8.00" length="5.93" shape="298.40,207.20 298.95,203.35 300.00,201.60"/>
    </edge>
    <edge id=":gneJ8_12" function="internal">
        <lane id=":gneJ8_12_0" index="0" speed="8.00" length="8.26" shape="300.00,201.60 300.60,200.60 303.35,198.95 307.20,198.40"/>
    </edge>
    <edge id=":gneJ8_3" function="internal">
        <lane id=":gneJ8_3_0" index="0" speed="6.51" length="9.03" shape="307.20,201.60 304.75,201.95 303.00,203.00 301.95,204.75 301.60,207.20"/>
    </edge>
    <edge id=":gneJ8_4" function="internal">
        <lane id=":gneJ8_4_0" index="0" speed="13.89" length="14.40" shape="307.20,201.60 292.80,201.60"/>
    </edge>
    <edge id=":gneJ8_5" function="internal">
        <lane id=":gneJ8_5_0" index="0" speed="8.00" length="5.93" shape="307.20,201.60 303.35,201.05 301.60,200.00"/>
    </edge>
    <edge id=":gneJ8_13" function="internal">
        <lane id=":gneJ8_13_0" index="0" speed="8.00" length="8.26" shape="301.60,200.00 300.60,199.40 298.95,196.65 298.40,192.80"/>
    </edge>
    <edge id=":gneJ8_6" function="internal">
        <lane id=":gneJ8_6_0" index="0" speed="6.51" length="9.03" shape="301.60,192.80 301.95,195.25 303.00,197.00 304.75,198.05 307.20,198.40"/>
    </edge>
    <edge id=":gneJ8_7" function="internal">
        <lane id=":gneJ8_7_0" index="0" speed="13.89" length="14.40" shape="301.60,192.80 301.60,207.20"/>
    </edge>
    <edge id=":gneJ8_8" function="internal">
        <lane id=":gneJ8_8_0" index="0" speed="8.00" length="5.93" shape="301.60,192.80 301.05,196.65 300.00,198.40"/>
    </edge>
    <edge id=":gneJ8_14" function="internal">
        <lane id=":gneJ8_14_0" index="0" speed="8.00" length="8.26" shape="300.00,198.40 299.40,199.40 296.65,201.05 292.80,201.60"/>
    </edge>
    <edge id=":gneJ8_9" function="internal">
        <lane id=":gneJ8_9_0" index="0" speed="6.51" length="9.03" shape="292.80,198.40 295.25,198.05 297.00,197.00 298.05,195.25 298.40,192.80"/>
    </edge>
    <edge id=":gneJ8_10" function="internal">
        <lane id=":gneJ8_10_0" index="0" speed="13.89" length="14.40" shape="292.80,198.40 307.20,198.40"/>
    </edge>
    <edge id=":gneJ8_11" function="internal">
        <lane id=":gneJ8_11_0" index="0" speed="8.00" length="5.93" shape="292.80,198.40 296.65,198.95 298.40,200.00"/>
    </edge>
    <edge id=":gneJ8_15" function="internal">
        <lane id=":gneJ8_15_0" index="0" speed="8.00" length="8.26" shape="298.40,200.00 299.40,200.60 301.05,203.35 301.60,207.20"/>
    </edge>
    <edge id=":gneJ9_0" function="internal">
        <lane id=":gneJ9_0_0" index="0" speed="6.63" length="3.77" shape="402.07,200.19 401.33,200.81 400.52,201.25 399.63,201.51 398.67,201.60"/>
    </edge>
    <edge id=":gneJ9_1" function="internal">
        <lane id=":gneJ9_1_0" index="0" speed="4.20" length="1.26" shape="398.67,198.40 398.99,198.37 399.29,198.28 399.56,198.14 399.81,197.93"/>
    </edge>

    <edge id="-gneE0" from="gneJ1" to="gneJ0" priority="-1">
        <lane id="-gneE0_0" index="0" speed="13.89" length="279.10" shape="98.40,390.82 98.40,111.73"/>
    </edge>
    <edge id="-gneE10" from="gneJ3" to="gneJ6" priority="-1">
        <lane id="-gneE10_0" index="0" speed="13.89" length="196.87" shape="483.58,393.58 307.49,305.54"/>
    </edge>
    <edge id="-gneE12" from="gneJ7" to="gneJ0" priority="-1">
        <lane id="-gneE12_0" index="0" speed="13.89" length="128.37" shape="197.93,200.19 107.16,109.42"/>
    </edge>
    <edge id="-gneE13" from="gneJ8" to="gneJ7" priority="-1">
        <lane id="-gneE13_0" index="0" speed="13.89" length="91.47" shape="292.80,201.60 201.33,201.60"/>
    </edge>
    <edge id="-gneE14" from="gneJ9" to="gneJ8" priority="-1">
        <lane id="-gneE14_0" index="0" speed="13.89" length="91.47" shape="398.67,201.60 307.20,201.60"/>
    </edge>
    <edge id="-gneE15" from="gneJ2" to="gneJ9" priority="-1">
        <lane id="-gneE15_0" index="0" speed="13.89" length="128.37" shape="492.84,109.42 402.07,200.19"/>
    </edge>
    <edge id="-gneE16" from="gneJ8" to="gneJ4" priority="-1">
        <lane id="-gneE16_0" index="0" speed="13.89" length="85.60" shape="298.40,192.80 298.40,107.20"/>
    </edge>
    <edge id="-gneE17" from="gneJ6" to="gneJ8" priority="-1">
        <lane id="-gneE17_0" index="0" speed="13.89" length="86.82" shape="298.40,294.02 298.40,207.20"/>
    </edge>
    <edge id="-gneE18" from="gneJ5" to="gneJ6" priority="-1">
        <lane id="-gneE18_0" index="0" speed="13.89" length="83.62" shape="298.40,392.80 298.40,309.18"/>
    </edge>
    <edge id="-gneE2" from="gneJ3" to="gneJ2" priority="-1">
        <lane id="-gneE2_0" index="0" speed="13.89" length="279.10" shape="498.40,390.82 498.40,111.73"/>
    </edge>
    <edge id="-gneE4" from="gneJ4" to="gneJ0" priority="-1">
        <lane id="-gneE4_0" index="0" speed="13.89" length="181.07" shape="292.80,101.60 111.73,101.60"/>
    </edge>
    <edge id="-gneE6" from="gneJ3" to="gneJ5" priority="-1">
        <lane id="-gneE6_0" index="0" speed="13.89" length="175.24" shape="482.44,401.60 307.20,401.60"/>
    </edge>
    <edge id="-gneE7" from="gneJ2" to="gneJ4" priority="-1">
        <lane id="-gneE7_0" index="0" speed="13.89" length="181.07" shape="488.27,101.60 307.20,101.60"/>
    </edge>
    <edge id="-gneE8" from="gneJ5" to="gneJ1" priority="-1">
        <lane id="-gneE8_0" index="0" speed="13.89" length="175.24" shape="292.80,401.60 117.56,401.60"/>
    </edge>
    <edge id="-gneE9" from="gneJ6" to="gneJ1" priority="-1">
        <lane id="-gneE9_0" index="0" speed="13.89" length="196.87" shape="292.51,305.54 116.42,393.58"/>
    </edge>
    <edge id="gneE0" from="gneJ0" to="gneJ1" priority="-1">
        <lane id="gneE0_0" index="0" speed="13.89" length="279.10" shape="101.60,111.73 101.60,390.82"/>
    </edge>
    <edge id="gneE10" from="gneJ6" to="gneJ3" priority="-1">
        <lane id="gneE10_0" index="0" speed="13.89" length="196.87" shape="308.92,302.67 485.01,390.72"/>
    </edge>
    <edge id="gneE12" from="gneJ0" to="gneJ7" priority="-1">
        <lane id="gneE12_0" index="0" speed="13.89" length="128.37" shape="109.42,107.16 200.19,197.93"/>
    </edge>
    <edge id="gneE13" from="gneJ7" to="gneJ8" priority="-1">
        <lane id="gneE13_0" index="0" speed="13.89" length="91.47" shape="201.33,198.40 292.80,198.40"/>
    </edge>
    <edge id="gneE14" from="gneJ8" to="gneJ9" priority="-1">
        <lane id="gneE14_0" index="0" speed="13.89" length="91.47" shape="307.20,198.40 398.67,198.40"/>
    </edge>
    <edge id="gneE15" from="gneJ9" to="gneJ2" priority="-1">
        <lane id="gneE15_0" index="0" speed="13.89" length="128.37" shape="399.81,197.93 490.58,107.16"/>
    </edge>
    <edge id="gneE16" from="gneJ4" to="gneJ8" priority="-1">
        <lane id="gneE16_0" index="0" speed="13.89" length="85.60" shape="301.60,107.20 301.60,192.80"/>
    </edge>
    <edge id="gneE17" from="gneJ8" to="gneJ6" priority="-1">
        <lane id="gneE17_0" index="0" speed="13.89" length="86.82" shape="301.60,207.20 301.60,294.02"/>
    </edge>
    <edge id="gneE18" from="gneJ6" to="gneJ5" priority="-1">
        <lane id="gneE18_0" index="0" speed="13.89" length="83.62" shape="301.60,309.18 301.60,392.80"/>
    </edge>
    <edge id="gneE2" from="gneJ2" to="gneJ3" priority="-1">
        <lane id="gneE2_0" index="0" speed="13.89" length="279.10" shape="501.60,111.73 501.60,390.82"/>
    </edge>
    <edge id="gneE4" from="gneJ0" to="gneJ4" priority="-1">
        <lane id="gneE4_0" index="0" speed="13.89" length="181.07" shape="111.73,98.40 292.80,98.40"/>
    </edge>
    <edge id="gneE6" from="gneJ5" to="gneJ3" priority="-1">
        <lane id="gneE6_0" index="0" speed="13.89" length="175.24" shape="307.20,398.40 482.44,398.40"/>
    </edge>
    <edge id="gneE7" from="gneJ4" to="gneJ2" priority="-1">
        <lane id="gneE7_0" index="0" speed="13.89" length="181.07" shape="307.20,98.40 488.27,98.40"/>
    </edge>
    <edge id="gneE8" from="gneJ1" to="gneJ5" priority="-1">
        <lane id="gneE8_0" index="0" speed="13.89" length="175.24" shape="117.56,398.40 292.80,398.40"/>
    </edge>
    <edge id="gneE9" from="gneJ1" to="gneJ6" priority="-1">
        <lane id="gneE9_0" index="0" speed="13.89" length="196.87" shape="114.99,390.72 291.08,302.67"/>
    </edge>

    <tlLogic id="gneJ0" type="static" programID="0" offset="0">
        <phase duration="38" state="GgrrGG"/>
        <phase duration="3"  state="ygrryy"/>
        <phase duration="6"  state="GGrrrr"/>
        <phase duration="3"  state="yyrrrr"/>
        <phase duration="37" state="rrGGGr"/>
        <phase duration="3"  state="rryyyr"/>
    </tlLogic>
    <tlLogic id="gneJ1" type="static" programID="0" offset="0">
        <phase duration="38" state="GgrrGG"/>
        <phase duration="3"  state="ygrryy"/>
        <phase duration="6"  state="GGrrrr"/>
        <phase duration="3"  state="yyrrrr"/>
        <phase duration="37" state="rrGGGr"/>
        <phase duration="3"  state="rryyyr"/>
    </tlLogic>
    <tlLogic id="gneJ2" type="static" programID="0" offset="0">
        <phase duration="38" state="GGGgrr"/>
        <phase duration="3"  state="yyygrr"/>
        <phase duration="6"  state="rrGGrr"/>
        <phase duration="3"  state="rryyrr"/>
        <phase duration="37" state="GrrrGG"/>
        <phase duration="3"  state="yrrryy"/>
    </tlLogic>
    <tlLogic id="gneJ3" type="static" programID="0" offset="0">
        <phase duration="38" state="GgrrGG"/>
        <phase duration="3"  state="ygrryy"/>
        <phase duration="6"  state="GGrrrr"/>
        <phase duration="3"  state="yyrrrr"/>
        <phase duration="37" state="rrGGGr"/>
        <phase duration="3"  state="rryyyr"/>
    </tlLogic>
    <tlLogic id="gneJ4" type="static" programID="0" offset="0">
        <phase duration="42" state="rrGGGg"/>
        <phase duration="3"  state="rryyyy"/>
        <phase duration="42" state="GGGrrr"/>
        <phase duration="3"  state="yyyrrr"/>
    </tlLogic>
    <tlLogic id="gneJ5" type="static" programID="0" offset="0">
        <phase duration="42" state="GgrrGG"/>
        <phase duration="3"  state="yyrryy"/>
        <phase duration="42" state="rrGGGr"/>
        <phase duration="3"  state="rryyyr"/>
    </tlLogic>
    <tlLogic id="gneJ6" type="static" programID="0" offset="0">
        <phase duration="42" state="GGgrrrGGgrrr"/>
        <phase duration="3"  state="yyyrrryyyrrr"/>
        <phase duration="42" state="rrrGGgrrrGGg"/>
        <phase duration="3"  state="rrryyyrrryyy"/>
    </tlLogic>
    <tlLogic id="gneJ8" type="static" programID="0" offset="0">
        <phase duration="42" state="GGgrrrGGgrrr"/>
        <phase duration="3"  state="yyyrrryyyrrr"/>
        <phase duration="42" state="rrrGGgrrrGGg"/>
        <phase duration="3"  state="rrryyyrrryyy"/>
    </tlLogic>

    <junction id="gneJ0" type="traffic_light" x="100.00" y="100.00" incLanes="-gneE0_0 -gneE12_0 -gneE4_0" intLanes=":gneJ0_0_0 :gneJ0_6_0 :gneJ0_2_0 :gneJ0_3_0 :gneJ0_4_0 :gneJ0_5_0" shape="96.80,111.73 103.20,111.73 103.51,109.82 103.91,109.43 104.46,109.43 105.16,109.80 106.03,110.55 110.55,106.03 109.43,104.46 109.43,103.91 109.82,103.51 110.58,103.28 111.73,103.20 111.73,96.80 107.16,97.21 103.43,98.46 100.53,100.53 98.46,103.43 97.21,107.16">
        <request index="0" response="000000" foes="001000" cont="0"/>
        <request index="1" response="110000" foes="111000" cont="1"/>
        <request index="2" response="100000" foes="100000" cont="0"/>
        <request index="3" response="100011" foes="100011" cont="0"/>
        <request index="4" response="000000" foes="000010" cont="0"/>
        <request index="5" response="000000" foes="001110" cont="0"/>
    </junction>
    <junction id="gneJ1" type="traffic_light" x="100.00" y="400.00" incLanes="-gneE8_0 -gneE9_0 gneE0_0" intLanes=":gneJ1_0_0 :gneJ1_6_0 :gneJ1_2_0 :gneJ1_3_0 :gneJ1_4_0 :gneJ1_5_0" shape="117.56,403.20 117.56,396.80 117.13,395.01 114.27,389.29 110.89,390.87 108.12,391.92 105.97,392.44 104.43,392.43 103.51,391.89 103.20,390.82 96.80,390.82 97.38,394.60 99.11,397.70 101.99,400.11 106.02,401.82 111.21,402.86">
        <request index="0" response="000000" foes="001000" cont="0"/>
        <request index="1" response="110000" foes="111000" cont="1"/>
        <request index="2" response="100000" foes="100000" cont="0"/>
        <request index="3" response="100011" foes="100011" cont="0"/>
        <request index="4" response="000000" foes="000010" cont="0"/>
        <request index="5" response="000000" foes="001110" cont="0"/>
    </junction>
    <junction id="gneJ2" type="traffic_light" x="500.00" y="100.00" incLanes="-gneE2_0 gneE7_0 gneE15_0" intLanes=":gneJ2_0_0 :gneJ2_1_0 :gneJ2_2_0 :gneJ2_6_0 :gneJ2_4_0 :gneJ2_5_0" shape="496.80,111.73 503.20,111.73 502.79,107.16 501.54,103.43 499.47,100.53 496.57,98.46 492.84,97.21 488.27,96.80 488.27,103.20 490.18,103.51 490.57,103.91 490.57,104.46 490.20,105.16 489.45,106.03 493.97,110.55 495.54,109.43 496.09,109.43 496.49,109.82 496.72,110.58">
        <request index="0" response="000000" foes="001000" cont="0"/>
        <request index="1" response="000000" foes="111000" cont="0"/>
        <request index="2" response="000000" foes="100000" cont="0"/>
        <request index="3" response="000011" foes="100011" cont="1"/>
        <request index="4" response="000010" foes="000010" cont="0"/>
        <request index="5" response="001110" foes="001110" cont="0"/>
    </junction>
    <junction id="gneJ3" type="traffic_light" x="500.00" y="400.00" incLanes="gneE2_0 gneE10_0 gneE6_0" intLanes=":gneJ3_0_0 :gneJ3_6_0 :gneJ3_2_0 :gneJ3_3_0 :gneJ3_4_0 :gneJ3_5_0" shape="503.20,390.82 496.80,390.82 495.57,392.43 494.03,392.44 491.88,391.92 489.11,390.87 485.73,389.29 482.87,395.01 482.44,396.80 482.44,403.20 488.79,402.86 493.98,401.82 498.01,400.11 500.89,397.70 502.62,394.60">
        <request index="0" response="000000" foes="001000" cont="0"/>
        <request index="1" response="110000" foes="111000" cont="1"/>
        <request index="2" response="100000" foes="100000" cont="0"/>
        <request index="3" response="100011" foes="100011" cont="0"/>
        <request index="4" response="000000" foes="000010" cont="0"/>
        <request index="5" response="000000" foes="001110" cont="0"/>
    </junction>
    <junction id="gneJ4" type="traffic_light" x="300.00" y="100.00" incLanes="-gneE16_0 -gneE7_0 gneE4_0" intLanes=":gneJ4_0_0 :gneJ4_1_0 :gneJ4_2_0 :gneJ4_3_0 :gneJ4_4_0 :gneJ4_6_0" shape="296.80,107.20 303.20,107.20 303.64,104.98 304.20,104.20 304.98,103.64 305.98,103.31 307.20,103.20 307.20,96.80 292.80,96.80 292.80,103.20 295.02,103.64 295.80,104.20 296.36,104.98 296.69,105.98">
        <request index="0" response="001000" foes="001000" cont="0"/>
        <request index="1" response="111000" foes="111000" cont="0"/>
        <request index="2" response="000000" foes="100000" cont="0"/>
        <request index="3" response="000000" foes="100011" cont="0"/>
        <request index="4" response="000000" foes="000010" cont="0"/>
        <request index="5" response="001100" foes="001110" cont="1"/>
    </junction>
    <junction id="gneJ5" type="traffic_light" x="300.00" y="400.00" incLanes="-gneE6_0 gneE18_0 gneE8_0" intLanes=":gneJ5_0_0 :gneJ5_6_0 :gneJ5_2_0 :gneJ5_3_0 :gneJ5_4_0 :gneJ5_5_0" shape="307.20,403.20 307.20,396.80 304.98,396.36 304.20,395.80 303.64,395.02 303.31,394.02 303.20,392.80 296.80,392.80 296.36,395.02 295.80,395.80 295.02,396.36 294.02,396.69 292.80,396.80 292.80,403.20">
        <request index="0" response="000000" foes="001000" cont="0"/>
        <request index="1" response="110000" foes="111000" cont="1"/>
        <request index="2" response="100000" foes="100000" cont="0"/>
        <request index="3" response="100011" foes="100011" cont="0"/>
        <request index="4" response="000000" foes="000010" cont="0"/>
        <request index="5" response="000000" foes="001110" cont="0"/>
    </junction>
    <junction id="gneJ6" type="traffic_light" x="300.00" y="300.00" incLanes="-gneE18_0 -gneE10_0 gneE17_0 gneE9_0" intLanes=":gneJ6_0_0 :gneJ6_1_0 :gneJ6_12_0 :gneJ6_3_0 :gneJ6_4_0 :gneJ6_13_0 :gneJ6_6_0 :gneJ6_7_0 :gneJ6_14_0 :gneJ6_9_0 :gneJ6_10_0 :gneJ6_15_0" shape="296.80,309.18 303.20,309.18 303.60,307.15 304.09,306.62 304.79,306.42 305.68,306.53 306.78,306.97 309.64,301.24 307.67,300.15 306.06,299.01 304.81,297.83 303.92,296.60 303.38,295.33 303.20,294.02 296.80,294.02 296.08,296.60 295.19,297.83 293.94,299.01 292.33,300.15 290.36,301.24 293.22,306.97 295.21,306.42 295.91,306.62 296.40,307.15 296.70,308.01">
        <request index="0"  response="000000000000" foes="000100010000" cont="0"/>