<?xml version="1.0" encoding="UTF-8"?>

<!-- generated on 04/01/20 11:19:30 by Eclipse SUMO netedit Version 1.2.0
<configuration xmlns:xsi="http://www.w3.org/2001/XMLSchema-instance" xsi:noNamespaceSchemaLocation="http://sumo.dlr.de/xsd/netconvertConfiguration.xsd">

    <output>
        <output-file value="C:\Users\Shekar\Desktop\VANET_RSU\Network.net.xml"/>
    </output>

    <processing>
        <offset.disable-normalization value="true"/>
    </processing>

    <junctions>
        <no-turnarounds value="true"/>
    </junctions>

    <netedit>
        <route-files value="C:\Users\Shekar\Desktop\VANET_RSU\Vehicle.rou"/>
    </netedit>

</configuration>
-->

<routes xmlns:xsi="http://www.w3.org/2001/XMLSchema-instance" xsi:noNamespaceSchemaLocation="http://sumo.dlr.de/xsd/routes_file.xsd">
    <trip id="Vehicle_1" type="DEFAULT_VEHTYPE" depart="0.00" from="-gneE9" to="gneE9"/>
    <trip id="Vehicle_2" type="DEFAULT_VEHTYPE" depart="0.00" from="-gneE0" to="-gneE12" via="gneE0"/>
    <trip id="Vehicle_3" type="DEFAULT_VEHTYPE" depart="0.00" from="gneE14" to="-gneE10" via="-gneE14"/>
    <trip id="Vehicle_4" type="DEFAULT_VEHTYPE" depart="0.00" from="-gneE6" to="gneE17" via="gneE6 gneE18 gneE10 -gneE2 gneE2 gneE15"/>
</routes>
