<?xml version="1.0" encoding="UTF-8"?>

<!-- generated on 2022-08-01 05:04:59 by Eclipse SUMO netedit Version 1.12.0
<configuration xmlns:xsi="http://www.w3.org/2001/XMLSchema-instance" xsi:noNamespaceSchemaLocation="http://sumo.dlr.de/xsd/netconvertConfiguration.xsd">

    <output>
        <output-file value="C:\Users\mihit\Desktop\VANET_SUMO\vanet.net.xml"/>
    </output>

    <processing>
        <offset.disable-normalization value="true"/>
    </processing>

    <junctions>
        <no-turnarounds value="true"/>
    </junctions>

    <report>
        <aggregate-warnings value="5"/>
    </report>

</configuration>
-->

<net version="1.9" junctionCornerDetail="5" limitTurnSpeed="5.50" xmlns:xsi="http://www.w3.org/2001/XMLSchema-instance" xsi:noNamespaceSchemaLocation="http://sumo.dlr.de/xsd/net_file.xsd">

    <location netOffset="0.00,0.00" convBoundary="200.00,300.00,1500.00,300.00" origBoundary="10000000000.00,10000000000.00,-10000000000.00,-10000000000.00" projParameter="!"/>

    <edge id="-E0" from="J1" to="J0" priority="-1">
        <lane id="-E0_0" index="0" speed="13.89" length="1300.00" shape="1500.00,301.60 200.00,301.60"/>
    </edge>
    <edge id="E0" from="J0" to="J1" priority="-1">
        <lane id="E0_0" index="0" speed="13.89" length="1300.00" shape="200.00,298.40 1500.00,298.40"/>
    </edge>

    <junction id="J0" type="dead_end" x="200.00" y="300.00" incLanes="-E0_0" intLanes="" shape="200.00,300.00 200.00,303.20 200.00,300.00"/>
    <junction id="J1" type="dead_end" x="1500.00" y="300.00" incLanes="E0_0" intLanes="" shape="1500.00,300.00 1500.00,296.80 1500.00,300.00"/>

</net>
